/*--------------------------------*- C++ -*----------------------------------*\
  =========                 |
  \\      /  F ield         | OpenFOAM: The Open Source CFD Toolbox
   \\    /   O peration     | Website:  https://openfoam.org
    \\  /    A nd           | Version:  6
     \\/     M anipulation  |
\*---------------------------------------------------------------------------*/
FoamFile
{
    version     2.0;
    format      ascii;
    class       dictionary;
    object      controlDict;
}
// * * * * * * * * * * * * * * * * * * * * * * * * * * * * * * * * * * * * * //

application     chtMultiRegionSRFFoam; 

startFrom       startTime;

startTime       0;

stopAt          endTime;

endTime         5.0;

deltaT          0.00008311;

solidRegionDeltaT 0.01;

writeControl    runTime;

writeInterval   0.5;

purgeWrite      0;

writeFormat     binary;

writePrecision  8;

writeCompression off;

timeFormat      general;

timePrecision   6;

runTimeModifiable true;

adjustTimeStep	yes;

maxCo		1;

maxDeltaT	0.1;

functions
{
	#includeFunc probes_cav0deg
//	#includeFunc probes_cav15deg
//	#includeFunc probes_cav30deg
	#includeFunc probes_disc0deg
//	#includeFunc probes_disc15deg
//	#includeFunc probes_disc30deg
}

// ************************************************************************* //
