/*--------------------------------*- C++ -*----------------------------------*\
  =========                 |
  \\      /  F ield         | OpenFOAM: The Open Source CFD Toolbox
   \\    /   O peration     | Website:  https://openfoam.org
    \\  /    A nd           | Version:  6
     \\/     M anipulation  |
\*---------------------------------------------------------------------------*/
FoamFile
{
    version     2.0;
    format      ascii;
    class       volScalarField;
    object      k;
}
// * * * * * * * * * * * * * * * * * * * * * * * * * * * * * * * * * * * * * //

kInlet          0.02;
intensityInlet  0.01;

dimensions      [0 2 -2 0 0 0 0];

internalField   uniform $kInlet;

boundaryField
{
	bohn_shroud
	{
        	type            kqRWallFunction;
	        value           uniform $kInlet;
        }

	bohn_hub
        {
	        type            kqRWallFunction;
	        value           uniform $kInlet;
        }

	bohn_dswall
        {
	        type            kqRWallFunction;
	        value           uniform $kInlet;
        }

	bohn_uswall
	{
	        type            kqRWallFunction;
	        value           uniform $kInlet;
	} 
//
//    cav_al_int
//    {
//        type            kqRWallFunction;
//        value           uniform $kInlet;
//    }
//
//    cav_disc23_int
//    {
//        type            kqRWallFunction;
//        value           uniform $kInlet;
//    }

    #includeEtc "caseDicts/setConstraintTypes"
}


// ************************************************************************* //
