/*--------------------------------*- C++ -*----------------------------------*\
  =========                 |
  \\      /  F ield         | OpenFOAM: The Open Source CFD Toolbox
   \\    /   O peration     | Website:  https://openfoam.org
    \\  /    A nd           | Version:  6
     \\/     M anipulation  |
\*---------------------------------------------------------------------------*/
FoamFile
{
    version     2.0;
    format      ascii;
    class       volScalarField;
    object      omega;
}
// * * * * * * * * * * * * * * * * * * * * * * * * * * * * * * * * * * * * * //

omegaInlet        10;
mixingLengthInlet 0.0035;

dimensions      [0 0 -1 0 0 0 0];

internalField   uniform $omegaInlet;

boundaryField
{
	bohn_shroud
	{
	        type            omegaWallFunction;
	        value           uniform $omegaInlet;
        }

	bohn_hub
        {
	        type            omegaWallFunction;
	        value           uniform $omegaInlet;
        }

	bohn_dswall
        {
	        type            omegaWallFunction;
	        value           uniform $omegaInlet;
        }

	bohn_uswall
	{
	        type            omegaWallFunction;
	        value           uniform $omegaInlet;
	} 
    
	
//    cav_al_int
//    {
//        type            omegaWallFunction;
//        value           uniform $omegaInlet;
//    }
//
//    cav_disc23_int
//    {
//        type            omegaWallFunction;
//        value           uniform $omegaInlet;
//    }

    #includeEtc "caseDicts/setConstraintTypes"
}

// ************************************************************************* //
