/*--------------------------------*- C++ -*----------------------------------*\
  =========                 |
  \\      /  F ield         | OpenFOAM: The Open Source CFD Toolbox
   \\    /   O peration     | Website:  https://openfoam.org
    \\  /    A nd           | Version:  6
     \\/     M anipulation  |
\*---------------------------------------------------------------------------*/
FoamFile
{
    version     2.0;
    format      ascii;
    class       volScalarField;
    object      p;
}
// * * * * * * * * * * * * * * * * * * * * * * * * * * * * * * * * * * * * * //

#include "$FOAM_CASE/constant/initialConditions";

dimensions      [1 -1 -2 0 0 0 0];

internalField   uniform $pInitial;

boundaryField
{
	bohn_shroud
	{
	        type	calculated;
		value	uniform $pInitial;
        }

	bohn_hub
        {
		type	calculated;
		value	uniform $pInitial;
        }

	bohn_dswall
        {
		type	calculated;
		value	uniform $pInitial;
        }

	bohn_uswall
	{
	        type	calculated;
		value	uniform $pInitial;
	}    

//    cav_al_int
//    {
//        type	calculated;
//	value	uniform $pInitial;
//    }
//
//    cav_disc23_int
//    {
//        type    calculated;
//	value   uniform $pInitial;
//    }

    #includeEtc "caseDicts/setConstraintTypes"
}

// ************************************************************************* //
