/*--------------------------------*- C++ -*----------------------------------*\
  =========                 |
  \\      /  F ield         | OpenFOAM: The Open Source CFD Toolbox
   \\    /   O peration     | Website:  https://openfoam.org
    \\  /    A nd           | Version:  6
     \\/     M anipulation  |
\*---------------------------------------------------------------------------*/
FoamFile
{
    version     2.0;
    format      ascii;
    class       volScalarField;
    object      T;
}
// * * * * * * * * * * * * * * * * * * * * * * * * * * * * * * * * * * * * * //

#include "$FOAM_CASE/constant/initialConditions";

dimensions      [0 0 0 1 0 0 0];

internalField   uniform $Tinitial;

boundaryField
{
	bohn_shroud
	{
		type	fixedValue;
		value	uniform 338.0;
	}
	
	bohn_hub
	{
		type	fixedValue;
		value	uniform 288.0;
	}
	
	bohn_dswall
	{
		type	zeroGradient;
	}
	
	bohn_uswall
	{
		type	zeroGradient;
	}

    #includeEtc "caseDicts/setConstraintTypes"
}


// ************************************************************************* //
