/*--------------------------------*- C++ -*----------------------------------*\
  =========                 |
  \\      /  F ield         | OpenFOAM: The Open Source CFD Toolbox
   \\    /   O peration     | Website:  https://openfoam.org
    \\  /    A nd           | Version:  8
     \\/     M anipulation  |
\*---------------------------------------------------------------------------*/
FoamFile
{
    version     2.0;
    format      ascii;
    class       dictionary;
    object      fvOptions;
}
// * * * * * * * * * * * * * * * * * * * * * * * * * * * * * * * * * * * * * //

fixedTemperature
{
    type            fixedTemperatureConstraint;
    active          no;
    selectionMode   all;

    mode            uniform;

    temperature     constant 300; // Set temperature (K)
}

fixedPower
{
    type            scalarSemiImplicitSource;
    active          no;
    selectionMode   all;

    volumeMode      absolute;

    power           100;          // Set power (W)

    injectionRateSuSp
    {
	e	($power 0);
    }
//    sources
//    {
//        e
//        {
//            explicit    $power;
//            implicit    0;
//        }
//    }
}

//************************************************************************** //
