/*--------------------------------*- C++ -*----------------------------------*\
| =========                 |                                                 |
| \\      /  F ield         | OpenFOAM: The Open Source CFD Toolbox           |
|  \\    /   O peration     | Version:  v2006                                 |
|   \\  /    A nd           | Website:  www.openfoam.com                      |
|    \\/     M anipulation  |                                                 |
\*---------------------------------------------------------------------------*/
FoamFile
{
    version     2.0;
    format      binary;
    class       polyBoundaryMesh;
    arch        "LSB;label=32;scalar=64";
    location    "constant/polyMesh";
    object      boundary;
}
// * * * * * * * * * * * * * * * * * * * * * * * * * * * * * * * * * * * * * //

4
(
    bohn_uswall
    {
        type            wall;
        inGroups        1(wall);
        nFaces          480;
        startFace       56640;
    }
    bohn_dswall
    {
        type            wall;
        inGroups        1(wall);
        nFaces          480;
        startFace       57120;
    }
    bohn_shroud
    {
        type            wall;
        inGroups        1(wall);
        nFaces          480;
        startFace       57600;
    }
    bohn_hub
    {
        type            wall;
        inGroups        1(wall);
        nFaces          480;
        startFace       58080;
    }
)

// ************************************************************************* //
