/*--------------------------------*- C++ -*----------------------------------*\
  =========                 |
  \\      /  F ield         | OpenFOAM: The Open Source CFD Toolbox
   \\    /   O peration     | Website:  https://openfoam.org
    \\  /    A nd           | Version:  6
     \\/     M anipulation  |
\*---------------------------------------------------------------------------*/
FoamFile
{
    version     2.0;
    format      ascii;
    class       volScalarField;
    object      nut;
}
// * * * * * * * * * * * * * * * * * * * * * * * * * * * * * * * * * * * * * //

dimensions      [0 2 -1 0 0 0 0];

internalField   uniform 0;

boundaryField
{
    cav_disc_int
    {
        type            nutkWallFunction;
        value           uniform 0;
    }

    cav_al_int                                                                                             {
        type            nutkWallFunction;
        value           uniform 0;
    }

    cav_us_int                                                                                             {
        type            nutkWallFunction;
        value           uniform 0;
    }

    cav_ds_int                                                                                             {
        type            nutkWallFunction;
        value           uniform 0;
    }

    #includeEtc "caseDicts/setConstraintTypes"
}

// ************************************************************************* //
