/*--------------------------------*- C++ -*----------------------------------*\
  =========                 |
  \\      /  F ield         | OpenFOAM: The Open Source CFD Toolbox
   \\    /   O peration     | Website:  https://openfoam.org
    \\  /    A nd           | Version:  6
     \\/     M anipulation  |
\*---------------------------------------------------------------------------*/
FoamFile
{
    version     2.0;
    format      ascii;
    class       volScalarField;
    object      T;
}
// * * * * * * * * * * * * * * * * * * * * * * * * * * * * * * * * * * * * * //

#include "$FOAM_CASE/constant/initialConditions";

dimensions      [0 0 0 1 0 0 0];

internalField   uniform $Tinitial;

boundaryField
{
    cav_ds_int
    {
        type            compressible::turbulentTemperatureCoupledBaffleMixedMixingPlane;
        neighbourFieldName T;
        kappaMethod     fluidThermo;
        kappa           kappa;
        Tnbr            T;
        value           uniform $Tinitial;
	fluidFilter     true;
    }
    cav_us_int
    {
        type            compressible::turbulentTemperatureCoupledBaffleMixedMixingPlane;
        neighbourFieldName T;
        kappaMethod     fluidThermo;
        kappa           kappa;
        Tnbr            T;
        value           uniform $Tinitial;
	fluidFilter     true;
    }
    cav_al_int
    {
        type            compressible::turbulentTemperatureCoupledBaffleMixedMixingPlane;
        neighbourFieldName T;
        kappaMethod     fluidThermo;
        kappa           kappa;
        Tnbr            T;
        value           uniform $Tinitial;
	fluidFilter     true;
    }
    cav_disc_int
    {
	type		compressible::turbulentTemperatureCoupledBaffleMixedMixingPlane;
	neighbourFieldName T;
	kappaMethod	fluidThermo;
	kappa		kappa;
	Tnbr		T;
	value		uniform $Tinitial;
	fluidFilter     true;
    }

    #includeEtc "caseDicts/setConstraintTypes"
}


// ************************************************************************* //
