/*--------------------------------*- C++ -*----------------------------------*\
  =========                 |
  \\      /  F ield         | OpenFOAM: The Open Source CFD Toolbox
   \\    /   O peration     | Website:  https://openfoam.org
    \\  /    A nd           | Version:  6
     \\/     M anipulation  |
\*---------------------------------------------------------------------------*/
FoamFile
{
    version     2.0;
    format      ascii;
    class       volVectorField;
    object      Urel;
}
// * * * * * * * * * * * * * * * * * * * * * * * * * * * * * * * * * * * * * //

Uinlet          (0 0 0);

dimensions      [0 1 -1 0 0 0 0];

internalField   uniform (0 0 0);

boundaryField
{
    cav_disc_int
    {
        type            noSlip;
    }

    cav_ds_int                                                                                            
    { 
	type            noSlip;
    }

    cav_us_int
    {        
	type            noSlip;
    }

    cav_al_int
    {
        type            noSlip;
    }

    #includeEtc "caseDicts/setConstraintTypes"
}


