/*--------------------------------*- C++ -*----------------------------------*\
  =========                 |
  \\      /  F ield         | OpenFOAM: The Open Source CFD Toolbox
   \\    /   O peration     | Website:  https://openfoam.org
    \\  /    A nd           | Version:  6
     \\/     M anipulation  |
\*---------------------------------------------------------------------------*/
FoamFile
{
    version     2.0;
    format      ascii;
    class       dictionary;
    object      fvSchemes;
}
// * * * * * * * * * * * * * * * * * * * * * * * * * * * * * * * * * * * * * //

ddtSchemes
{
    default         Euler;
}

gradSchemes
{
    default         leastSquares; 

    limited         cellLimited Gauss linear 1;
    grad(Urel)      cellLimited leastSquares 1;
    grad(k)         $limited;
    grad(omega)     $limited;
    grad(epsilon)   $limited;
}

divSchemes
{
    default         none;

    div(phi,Urel)   Gauss linearUpwind limited;
    turbulence      Gauss limitedLinear 1;
    div(phi,k)      $turbulence;
    div(phi,omega)  $turbulence;
    div(phi,epsilon) $turbulence;
    div(phi,R)	    $turbulence;
    div(R)	    $turbulence;
    div(phi,e)      $turbulence;
    div(phi,h)      $turbulence;
    div(phi,K)      $turbulence;
    div(phi,Ekp)    $turbulence;

    div(phid,p)     Gauss upwind;
    div((phi|interpolate(rho)),p)  Gauss upwind;

    div(((rho*nuEff)*dev2(T(grad(Urel)))))    Gauss linear;
}

laplacianSchemes
{
    default         Gauss linear corrected;
}

interpolationSchemes
{
    default         linear;
}

snGradSchemes
{
    default         corrected;
}

fluxRequired
{
    default         no;
    p                 ;
}

wallDist
{
    method meshWave;
}


// ************************************************************************* //
