/*--------------------------------*- C++ -*----------------------------------*\
  =========                 |
  \\      /  F ield         | OpenFOAM: The Open Source CFD Toolbox
   \\    /   O peration     | Website:  https://openfoam.org
    \\  /    A nd           | Version:  6
     \\/     M anipulation  |
\*---------------------------------------------------------------------------*/
FoamFile
{
    version     2.0;
    format      ascii;
    class       dictionary;
    object      fvSolution;
}
// * * * * * * * * * * * * * * * * * * * * * * * * * * * * * * * * * * * * * //

solvers
{
//    "(rho|rhoFinal)"
//    {
//        solver          PCG
//        preconditioner  DIC;
//        tolerance       1e-7;
//        relTol          0;
//    }

    "(rho|rhoFinal)"
    {
	solver  diagonal;
//	solver		PCG;
//	preconditioner	DIC;
//	tolerance	0;
//	relTol		0;
    }

    p_rgh
    {
        solver           GAMG;
        tolerance        1e-9;
        relTol           0.001;
        smoother         GaussSeidel;
        maxIter          200;
	
//	solver		PCG;
//	preconditioner	DIC;
//	tolerance	1e-8;
//	relTol		0.01;
    }

    "(Urel|h|e|k|omega|epsilon|R)"
//    "(U|h|e|k|omega|epsilon|T)"
    {
        solver          PBiCGStab;
        preconditioner  DILU;
        tolerance       1e-9;
        relTol          0.01;
    }

    p_rghFinal
    {
        $p_rgh;
        relTol         0;
    }

    "(Urel|h|e|k|omega|epsilon|R)Final"
//    "(U|h|e|k|omega|epsilon|T)Final"
    {
        $Urel;
        relTol          0;
    }
}

PIMPLE
{
    momentumPredictor yes;
    nOuterCorrectors 1;
    nCorrectors     2;
    nNonOrthogonalCorrectors 1;
    pRefCell        0;
    pRefValue       1e5;
}

relaxationFactors
{
    equations
    {
        ".*" 1;
    }
}

// ************************************************************************* //
